*SPEF "ieee 1481-1999"
*DESIGN "PulseDurationMeasurement"
*DATE "10:49:29 Saturday April 27, 2024"
*VENDOR "The OpenROAD Project"
*PROGRAM "OpenROAD"
*VERSION "0889970d1790a2617e69f253221b8bd7626e51dc"
*DESIGN_FLOW "NAME_SCOPE LOCAL" "PIN_CAP NONE"
*DIVIDER /
*DELIMITER :
*BUS_DELIMITER []
*T_UNIT 1 NS
*C_UNIT 1 PF
*R_UNIT 1 OHM
*L_UNIT 1 HENRY

*NAME_MAP
*1 EN
*2 RS
*3 RW
*6 clk
*7 data_in[0]
*8 data_in[1]
*9 data_in[2]
*10 data_in[3]
*11 data_in[4]
*12 data_in[5]
*13 data_in[6]
*14 data_in[7]
*15 data_out[0]
*16 data_out[1]
*17 data_out[2]
*18 data_out[3]
*19 data_out[4]
*20 data_out[5]
*21 data_out[6]
*22 data_out[7]
*23 reset_n
*24 signal_in
*25 _0000_
*26 _0001_
*27 _0002_
*28 _0003_
*29 _0004_
*30 _0005_
*31 _0006_
*32 _0007_
*33 _0008_
*34 _0009_
*35 _0010_
*36 _0011_
*37 _0012_
*38 _0013_
*39 _0014_
*40 _0015_
*41 _0016_
*42 _0017_
*43 _0018_
*44 _0019_
*45 _0020_
*46 _0021_
*47 _0022_
*48 _0023_
*49 _0024_
*50 _0025_
*51 _0026_
*52 _0027_
*53 _0028_
*54 _0029_
*55 _0030_
*56 _0031_
*57 _0032_
*58 _0033_
*59 _0034_
*60 _0035_
*61 _0036_
*62 _0037_
*63 _0038_
*64 _0039_
*65 _0040_
*66 _0041_
*67 _0042_
*68 _0043_
*69 _0044_
*70 _0045_
*71 _0046_
*72 _0047_
*73 _0048_
*74 _0049_
*75 _0050_
*76 _0051_
*77 _0052_
*78 _0053_
*79 _0054_
*80 _0055_
*81 _0056_
*82 _0057_
*83 _0058_
*84 _0059_
*85 _0060_
*86 _0061_
*87 _0062_
*88 _0063_
*89 _0064_
*90 _0065_
*91 _0066_
*92 _0067_
*93 _0068_
*94 _0069_
*95 _0070_
*96 _0071_
*97 _0072_
*98 _0073_
*99 _0074_
*100 _0075_
*101 _0076_
*102 _0077_
*103 _0078_
*104 _0079_
*105 _0080_
*106 _0081_
*107 _0082_
*108 _0083_
*109 _0084_
*110 _0085_
*111 _0086_
*112 _0087_
*113 _0088_
*114 _0089_
*115 _0090_
*116 _0091_
*117 _0092_
*118 _0093_
*119 _0094_
*120 _0095_
*121 _0096_
*122 _0097_
*123 _0098_
*124 _0099_
*125 _0100_
*126 _0101_
*127 _0102_
*128 _0103_
*129 _0104_
*130 _0105_
*131 _0106_
*132 _0107_
*133 _0108_
*134 _0109_
*135 _0110_
*136 _0111_
*137 _0112_
*138 _0113_
*139 _0114_
*140 _0115_
*141 _0116_
*142 _0117_
*143 _0118_
*144 _0119_
*145 _0120_
*146 _0121_
*147 _0122_
*148 _0123_
*149 _0124_
*150 _0125_
*151 _0126_
*152 _0127_
*153 _0128_
*154 _0129_
*155 _0130_
*156 _0131_
*157 _0132_
*158 _0133_
*159 _0134_
*160 _0135_
*161 _0136_
*162 _0137_
*163 _0138_
*164 _0139_
*165 _0140_
*166 _0141_
*167 _0142_
*168 _0143_
*169 _0144_
*170 _0145_
*171 _0146_
*172 _0147_
*173 _0148_
*174 _0149_
*175 _0150_
*176 _0151_
*177 _0152_
*178 _0153_
*179 _0154_
*180 _0155_
*181 _0156_
*182 _0157_
*183 _0158_
*184 _0159_
*185 _0160_
*186 _0161_
*187 _0162_
*188 _0163_
*189 _0164_
*190 _0165_
*191 _0166_
*192 _0167_
*193 _0168_
*194 _0169_
*195 _0170_
*196 _0171_
*197 _0172_
*198 _0173_
*199 _0174_
*200 _0175_
*201 _0176_
*202 _0177_
*203 _0178_
*204 _0179_
*205 _0180_
*206 _0181_
*207 _0182_
*208 _0183_
*209 _0184_
*210 _0185_
*211 _0186_
*212 _0187_
*213 _0188_
*214 _0189_
*215 _0190_
*216 _0191_
*217 _0192_
*218 _0193_
*219 _0194_
*220 _0195_
*221 _0196_
*222 _0197_
*223 _0198_
*224 _0199_
*225 _0200_
*226 _0201_
*227 _0202_
*228 _0203_
*229 _0204_
*230 _0205_
*231 _0206_
*232 _0207_
*233 _0208_
*234 _0209_
*235 _0210_
*236 _0211_
*237 _0212_
*238 _0213_
*239 _0214_
*240 _0215_
*241 _0216_
*242 _0217_
*243 _0218_
*244 _0219_
*245 _0220_
*246 _0221_
*247 _0222_
*248 _0223_
*249 _0224_
*250 _0225_
*251 _0226_
*252 _0227_
*253 _0228_
*254 _0229_
*255 _0230_
*256 _0231_
*257 _0232_
*258 _0233_
*259 _0234_
*260 _0235_
*261 _0236_
*262 _0237_
*263 _0238_
*264 _0239_
*265 _0240_
*266 _0241_
*267 _0242_
*268 _0243_
*269 _0244_
*270 _0245_
*271 _0246_
*272 _0247_
*273 _0248_
*274 _0249_
*275 _0250_
*276 _0251_
*277 _0252_
*278 _0253_
*279 _0254_
*280 _0255_
*281 _0256_
*282 _0257_
*283 _0258_
*284 _0259_
*285 _0260_
*286 _0261_
*287 _0262_
*288 _0263_
*289 _0264_
*290 _0265_
*291 _0266_
*292 _0267_
*293 _0268_
*294 _0269_
*295 _0270_
*296 _0271_
*297 _0272_
*298 _0273_
*299 _0274_
*300 _0275_
*301 _0276_
*302 _0277_
*303 _0278_
*304 _0279_
*305 _0280_
*306 _0281_
*307 _0282_
*308 _0283_
*309 _0284_
*310 _0285_
*311 _0286_
*312 _0287_
*313 _0288_
*314 _0289_
*315 _0290_
*316 _0291_
*317 _0292_
*318 _0293_
*319 _0294_
*320 _0295_
*321 _0296_
*322 _0297_
*323 _0298_
*324 _0299_
*325 _0300_
*326 _0301_
*327 _0302_
*328 _0303_
*329 _0304_
*330 _0305_
*331 _0306_
*332 _0307_
*333 _0308_
*334 _0309_
*335 _0310_
*336 _0311_
*337 _0312_
*338 _0313_
*339 _0314_
*340 _0315_
*341 _0316_
*342 _0317_
*343 _0318_
*344 _0319_
*345 _0320_
*346 _0321_
*347 _0322_
*348 _0323_
*349 _0324_
*350 _0325_
*351 _0326_
*352 _0327_
*353 _0328_
*354 _0329_
*355 _0330_
*356 _0331_
*357 _0332_
*358 _0333_
*359 _0334_
*360 _0335_
*361 _0336_
*362 _0337_
*363 _0338_
*364 _0339_
*365 _0340_
*366 _0341_
*367 _0342_
*368 _0343_
*369 _0344_
*370 _0345_
*371 _0346_
*372 _0347_
*373 _0348_
*374 _0349_
*375 _0350_
*376 _0351_
*377 _0352_
*378 _0353_
*379 _0354_
*380 _0355_
*381 _0356_
*382 _0357_
*383 _0358_
*384 _0359_
*385 _0360_
*386 _0361_
*387 _0362_
*388 _0363_
*389 _0364_
*390 _0365_
*391 _0366_
*392 _0367_
*393 _0368_
*394 _0369_
*395 _0370_
*396 _0371_
*397 _0372_
*398 _0373_
*399 _0374_
*400 _0375_
*401 _0376_
*402 _0377_
*403 _0378_
*404 _0379_
*405 _0380_
*406 _0381_
*407 _0382_
*408 _0383_
*409 _0384_
*410 _0385_
*411 _0386_
*412 _0387_
*413 _0388_
*414 _0389_
*415 _0390_
*416 _0391_
*417 _0392_
*418 _0393_
*419 _0394_
*420 _0395_
*421 _0396_
*422 _0397_
*423 _0398_
*424 _0399_
*425 _0400_
*426 _0401_
*427 _0402_
*428 _0403_
*429 _0404_
*430 _0405_
*431 _0406_
*432 _0407_
*433 _0408_
*434 _0409_
*435 _0410_
*436 _0411_
*437 _0412_
*438 _0413_
*439 _0414_
*440 _0415_
*441 _0416_
*442 _0417_
*443 _0418_
*444 _0419_
*445 _0420_
*446 _0421_
*447 _0422_
*448 _0423_
*449 _0424_
*450 _0425_
*451 _0426_
*452 _0427_
*453 _0428_
*454 _0429_
*455 _0430_
*456 _0431_
*457 _0432_
*458 _0433_
*459 _0434_
*460 _0435_
*461 _0436_
*462 _0437_
*463 _0438_
*464 _0439_
*465 _0440_
*466 _0441_
*467 _0442_
*468 _0443_
*469 _0444_
*470 _0445_
*471 _0446_
*472 _0447_
*473 _0448_
*474 _0449_
*475 _0450_
*476 _0451_
*477 _0452_
*478 _0453_
*479 _0454_
*480 _0455_
*481 _0456_
*482 _0457_
*483 _0458_
*484 _0459_
*485 _0460_
*486 _0461_
*487 _0462_
*488 _0463_
*489 _0464_
*490 _0465_
*491 _0466_
*492 _0467_
*493 _0468_
*494 _0469_
*495 _0470_
*496 _0471_
*497 _0472_
*498 _0473_
*499 _0474_
*500 _0475_
*501 _0476_
*502 _0477_
*503 _0478_
*504 _0479_
*505 _0480_
*506 _0481_
*507 _0482_
*508 _0483_
*509 _0484_
*510 _0485_
*511 _0486_
*512 _0487_
*513 _0488_
*514 _0489_
*515 _0490_
*516 _0491_
*517 _0492_
*518 _0493_
*519 _0494_
*520 _0495_
*521 _0496_
*522 _0497_
*523 _0498_
*524 _0499_
*525 _0500_
*526 _0501_
*527 _0502_
*528 _0503_
*529 _0504_
*530 _0505_
*531 _0506_
*532 _0507_
*533 _0508_
*534 _0509_
*535 _0510_
*536 _0511_
*537 _0512_
*538 _0513_
*539 _0514_
*540 _0515_
*541 _0516_
*542 _0517_
*543 _0518_
*544 _0519_
*545 _0520_
*546 _0521_
*547 _0522_
*548 _0523_
*549 _0524_
*550 _0525_
*551 _0526_
*552 _0527_
*553 _0528_
*554 _0529_
*555 _0530_
*556 _0531_
*557 _0532_
*558 _0533_
*559 _0534_
*560 _0535_
*561 _0536_
*562 _0537_
*563 _0538_
*564 _0539_
*565 _0540_
*566 _0541_
*567 _0542_
*568 _0543_
*569 _0544_
*570 _0545_
*571 _0546_
*572 _0547_
*573 _0548_
*574 _0549_
*575 _0550_
*576 _0551_
*577 _0552_
*578 _0553_
*579 _0554_
*580 _0555_
*581 _0556_
*582 _0557_
*583 _0558_
*584 _0559_
*585 _0560_
*586 _0561_
*587 _0562_
*588 _0563_
*589 _0564_
*590 _0565_
*591 _0566_
*592 _0567_
*593 _0568_
*594 _0569_
*595 _0570_
*596 _0571_
*597 _0572_
*598 _0573_
*599 _0574_
*600 _0575_
*601 _0576_
*602 _0577_
*603 _0578_
*604 _0579_
*605 _0580_
*606 _0581_
*607 _0582_
*608 _0583_
*609 _0584_
*610 _0585_
*611 _0586_
*612 _0587_
*613 _0588_
*614 _0589_
*615 _0590_
*616 _0591_
*617 _0592_
*618 _0593_
*619 _0594_
*620 _0595_
*621 _0596_
*622 _0597_
*623 _0598_
*624 _0599_
*625 _0600_
*626 _0601_
*627 _0602_
*628 _0603_
*629 _0604_
*630 _0605_
*631 _0606_
*632 _0607_
*633 _0608_
*634 _0609_
*635 _0610_
*636 _0611_
*637 _0612_
*638 _0613_
*639 _0614_
*640 _0615_
*641 _0616_
*642 _0617_
*643 _0618_
*644 _0619_
*645 _0620_
*646 _0621_
*647 _0622_
*648 _0623_
*649 _0624_
*650 _0625_
*651 _0626_
*652 _0627_
*653 _0628_
*654 _0629_
*655 _0630_
*656 _0631_
*657 _0632_
*658 _0633_
*659 _0634_
*660 _0635_
*661 _0636_
*662 _0637_
*663 _0638_
*664 _0639_
*665 _0640_
*666 _0641_
*667 _0642_
*668 _0643_
*669 _0644_
*670 _0645_
*671 _0646_
*672 _0647_
*673 _0648_
*674 _0649_
*675 _0650_
*676 _0651_
*677 _0652_
*678 _0653_
*679 _0654_
*680 _0655_
*681 _0656_
*682 _0657_
*683 _0658_
*684 _0659_
*685 _0660_
*686 _0661_
*687 _0662_
*688 _0663_
*689 _0664_
*690 _0665_
*691 _0666_
*692 _0667_
*693 _0668_
*694 _0669_
*695 _0670_
*696 _0671_
*697 _0672_
*698 _0673_
*699 _0674_
*700 _0675_
*701 _0676_
*702 _0677_
*703 _0678_
*704 _0679_
*705 _0680_
*706 _0681_
*707 _0682_
*708 _0683_
*709 _0684_
*710 _0685_
*711 _0686_
*712 _0687_
*713 _0688_
*714 _0689_
*715 _0690_
*716 _0691_
*717 _0692_
*718 _0693_
*719 _0694_
*720 _0695_
*721 _0696_
*722 _0697_
*723 _0698_
*724 _0699_
*725 _0700_
*726 _0701_
*727 _0702_
*728 _0703_
*729 _0704_
*730 _0705_
*731 _0706_
*732 _0707_
*733 _0708_
*734 _0709_
*735 _0710_
*736 _0711_
*737 _0712_
*738 _0713_
*739 _0714_
*740 _0715_
*741 _0716_
*742 _0717_
*743 _0718_
*744 _0719_
*745 _0720_
*746 _0721_
*747 _0722_
*748 _0723_
*749 _0724_
*750 _0725_
*751 _0726_
*752 _0727_
*753 _0728_
*754 _0729_
*755 _0730_
*756 _0731_
*757 _0732_
*758 _0733_
*759 _0734_
*760 _0735_
*761 _0736_
*762 _0737_
*763 _0738_
*764 _0739_
*765 _0740_
*766 _0741_
*767 _0742_
*768 _0743_
*769 _0744_
*770 _0745_
*771 _0746_
*772 _0747_
*773 _0748_
*774 _0749_
*775 _0750_
*776 _0751_
*777 _0752_
*778 _0753_
*779 _0754_
*780 _0755_
*781 _0756_
*782 _0757_
*783 _0758_
*784 _0759_
*785 _0760_
*786 _0761_
*787 _0762_
*788 _0763_
*789 _0764_
*790 _0765_
*791 _0766_
*792 _0767_
*793 _0768_
*794 _0769_
*795 _0770_
*796 _0771_
*797 _0772_
*798 _0773_
*799 _0774_
*800 _0775_
*801 _0776_
*802 _0777_
*803 _0778_
*804 _0779_
*805 _0780_
*806 _0781_
*807 _0782_
*808 _0783_
*809 _0784_
*810 _0785_
*811 _0786_
*812 _0787_
*813 _0788_
*814 _0789_
*815 _0790_
*816 _0791_
*817 _0792_
*818 _0793_
*819 _0794_
*820 _0795_
*821 _0796_
*822 _0797_
*823 _0798_
*824 _0799_
*825 _0800_
*826 _0801_
*827 _0802_
*828 _0803_
*829 _0804_
*830 _0805_
*831 _0806_
*832 _0807_
*833 _0808_
*834 _0809_
*835 _0810_
*836 _0811_
*837 _0812_
*838 _0813_
*839 _0814_
*840 _0815_
*841 _0816_
*842 _0817_
*843 _0818_
*844 _0819_
*845 _0820_
*846 _0821_
*847 _0822_
*848 _0823_
*849 _0824_
*850 _0825_
*851 _0826_
*852 _0827_
*853 _0828_
*854 _0829_
*855 _0830_
*856 _0831_
*857 _0832_
*858 _0833_
*859 _0834_
*860 _0835_
*861 _0836_
*862 _0837_
*863 _0838_
*864 _0839_
*865 _0840_
*866 _0841_
*867 _0842_
*868 _0843_
*869 _0844_
*870 _0845_
*871 _0846_
*872 _0847_
*873 _0848_
*874 _0849_
*875 _0850_
*876 _0851_
*877 _0852_
*878 _0853_
*879 _0854_
*880 _0855_
*881 _0856_
*882 _0857_
*883 _0858_
*884 _0859_
*885 _0860_
*886 _0861_
*887 _0862_
*888 _0863_
*889 _0864_
*890 _0865_
*891 _0866_
*892 _0867_
*893 _0868_
*894 _0869_
*895 _0870_
*896 _0871_
*897 _0872_
*898 _0873_
*899 _0874_
*900 _0875_
*901 _0876_
*902 _0877_
*903 _0878_
*904 _0879_
*905 _0880_
*906 _0881_
*907 _0882_
*908 _0883_
*909 _0884_
*910 _0885_
*911 _0886_
*912 _0887_
*913 address\[0\]
*914 address\[1\]
*915 address\[2\]
*916 address\[3\]
*917 address\[4\]
*918 address\[5\]
*919 clknet_0_clk
*920 clknet_1_0__leaf_clk
*921 clknet_1_1__leaf_clk
*922 clknet_leaf_0_clk
*923 clknet_leaf_10_clk
*924 clknet_leaf_11_clk
*925 clknet_leaf_12_clk
*926 clknet_leaf_13_clk
*927 clknet_leaf_14_clk
*928 clknet_leaf_15_clk
*929 clknet_leaf_16_clk
*930 clknet_leaf_17_clk
*931 clknet_leaf_18_clk
*932 clknet_leaf_19_clk
*933 clknet_leaf_1_clk
*934 clknet_leaf_20_clk
*935 clknet_leaf_21_clk
*936 clknet_leaf_22_clk
*937 clknet_leaf_23_clk
*938 clknet_leaf_24_clk
*939 clknet_leaf_25_clk
*940 clknet_leaf_26_clk
*941 clknet_leaf_2_clk
*942 clknet_leaf_3_clk
*943 clknet_leaf_4_clk
*944 clknet_leaf_5_clk
*945 clknet_leaf_6_clk
*946 clknet_leaf_7_clk
*947 clknet_leaf_8_clk
*948 clknet_leaf_9_clk
*949 count\[0\]
*950 count\[10\]
*951 count\[11\]
*952 count\[1\]
*953 count\[2\]
*954 count\[3\]
*955 count\[4\]
*956 count\[5\]
*957 count\[6\]
*958 count\[7\]
*959 count\[8\]
*960 count\[9\]
*961 data_reg\[0\]\[0\]
*962 data_reg\[0\]\[1\]
*963 data_reg\[0\]\[2\]
*964 data_reg\[0\]\[3\]
*965 data_reg\[0\]\[4\]
*966 data_reg\[0\]\[5\]
*967 data_reg\[0\]\[6\]
*968 data_reg\[0\]\[7\]
*969 data_reg\[10\]\[0\]
*970 data_reg\[10\]\[1\]
*971 data_reg\[10\]\[2\]
*972 data_reg\[10\]\[3\]
*973 data_reg\[10\]\[4\]
*974 data_reg\[10\]\[5\]
*975 data_reg\[10\]\[6\]
*976 data_reg\[10\]\[7\]
*977 data_reg\[11\]\[0\]
*978 data_reg\[11\]\[1\]
*979 data_reg\[11\]\[2\]
*980 data_reg\[11\]\[3\]
*981 data_reg\[11\]\[4\]
*982 data_reg\[11\]\[5\]
*983 data_reg\[11\]\[6\]
*984 data_reg\[11\]\[7\]
*985 data_reg\[12\]\[0\]
*986 data_reg\[12\]\[1\]
*987 data_reg\[12\]\[2\]
*988 data_reg\[12\]\[3\]
*989 data_reg\[12\]\[4\]
*990 data_reg\[12\]\[5\]
*991 data_reg\[12\]\[6\]
*992 data_reg\[12\]\[7\]
*993 data_reg\[13\]\[0\]
*994 data_reg\[13\]\[1\]
*995 data_reg\[13\]\[2\]
*996 data_reg\[13\]\[3\]
*997 data_reg\[13\]\[4\]
*998 data_reg\[13\]\[5\]
*999 data_reg\[13\]\[6\]
*1000 data_reg\[13\]\[7\]
*1001 data_reg\[14\]\[0\]
*1002 data_reg\[14\]\[1\]
*1003 data_reg\[14\]\[2\]
*1004 data_reg\[14\]\[3\]
*1005 data_reg\[14\]\[4\]
*1006 data_reg\[14\]\[5\]
*1007 data_reg\[14\]\[6\]
*1008 data_reg\[14\]\[7\]
*1009 data_reg\[15\]\[0\]
*1010 data_reg\[15\]\[1\]
*1011 data_reg\[15\]\[2\]
*1012 data_reg\[15\]\[3\]
*1013 data_reg\[15\]\[4\]
*1014 data_reg\[15\]\[5\]
*1015 data_reg\[15\]\[6\]
*1016 data_reg\[15\]\[7\]
*1017 data_reg\[16\]\[0\]
*1018 data_reg\[16\]\[1\]
*1019 data_reg\[16\]\[2\]
*1020 data_reg\[16\]\[3\]
*1021 data_reg\[16\]\[4\]
*1022 data_reg\[16\]\[5\]
*1023 data_reg\[16\]\[6\]
*1024 data_reg\[16\]\[7\]
*1025 data_reg\[17\]\[0\]
*1026 data_reg\[17\]\[1\]
*1027 data_reg\[17\]\[2\]
*1028 data_reg\[17\]\[3\]
*1029 data_reg\[17\]\[4\]
*1030 data_reg\[17\]\[5\]
*1031 data_reg\[17\]\[6\]
*1032 data_reg\[17\]\[7\]
*1033 data_reg\[18\]\[0\]
*1034 data_reg\[18\]\[1\]
*1035 data_reg\[18\]\[2\]
*1036 data_reg\[18\]\[3\]
*1037 data_reg\[18\]\[4\]
*1038 data_reg\[18\]\[5\]
*1039 data_reg\[18\]\[6\]
*1040 data_reg\[18\]\[7\]
*1041 data_reg\[19\]\[0\]
*1042 data_reg\[19\]\[1\]
*1043 data_reg\[19\]\[2\]
*1044 data_reg\[19\]\[3\]
*1045 data_reg\[19\]\[4\]
*1046 data_reg\[19\]\[5\]
*1047 data_reg\[19\]\[6\]
*1048 data_reg\[19\]\[7\]
*1049 data_reg\[1\]\[0\]
*1050 data_reg\[1\]\[1\]
*1051 data_reg\[1\]\[2\]
*1052 data_reg\[1\]\[3\]
*1053 data_reg\[1\]\[4\]
*1054 data_reg\[1\]\[5\]
*1055 data_reg\[1\]\[6\]
*1056 data_reg\[1\]\[7\]
*1057 data_reg\[20\]\[0\]
*1058 data_reg\[20\]\[1\]
*1059 data_reg\[20\]\[2\]
*1060 data_reg\[20\]\[3\]
*1061 data_reg\[20\]\[4\]
*1062 data_reg\[20\]\[5\]
*1063 data_reg\[20\]\[6\]
*1064 data_reg\[20\]\[7\]
*1065 data_reg\[21\]\[0\]
*1066 data_reg\[21\]\[1\]
*1067 data_reg\[21\]\[2\]
*1068 data_reg\[21\]\[3\]
*1069 data_reg\[21\]\[4\]
*1070 data_reg\[21\]\[5\]
*1071 data_reg\[21\]\[6\]
*1072 data_reg\[21\]\[7\]
*1073 data_reg\[22\]\[0\]
*1074 data_reg\[22\]\[1\]
*1075 data_reg\[22\]\[2\]
*1076 data_reg\[22\]\[3\]
*1077 data_reg\[22\]\[4\]
*1078 data_reg\[22\]\[5\]
*1079 data_reg\[22\]\[6\]
*1080 data_reg\[22\]\[7\]
*1081 data_reg\[23\]\[0\]
*1082 data_reg\[23\]\[1\]
*1083 data_reg\[23\]\[2\]
*1084 data_reg\[23\]\[3\]
*1085 data_reg\[23\]\[4\]
*1086 data_reg\[23\]\[5\]
*1087 data_reg\[23\]\[6\]
*1088 data_reg\[23\]\[7\]
*1089 data_reg\[24\]\[0\]
*1090 data_reg\[24\]\[1\]
*1091 data_reg\[24\]\[2\]
*1092 data_reg\[24\]\[3\]
*1093 data_reg\[24\]\[4\]
*1094 data_reg\[24\]\[5\]
*1095 data_reg\[24\]\[6\]
*1096 data_reg\[24\]\[7\]
*1097 data_reg\[25\]\[0\]
*1098 data_reg\[25\]\[1\]
*1099 data_reg\[25\]\[2\]
*1100 data_reg\[25\]\[3\]
*1101 data_reg\[25\]\[4\]
*1102 data_reg\[25\]\[5\]
*1103 data_reg\[25\]\[6\]
*1104 data_reg\[25\]\[7\]
*1105 data_reg\[26\]\[0\]
*1106 data_reg\[26\]\[1\]
*1107 data_reg\[26\]\[2\]
*1108 data_reg\[26\]\[3\]
*1109 data_reg\[26\]\[4\]
*1110 data_reg\[26\]\[5\]
*1111 data_reg\[26\]\[6\]
*1112 data_reg\[26\]\[7\]
*1113 data_reg\[27\]\[0\]
*1114 data_reg\[27\]\[1\]
*1115 data_reg\[27\]\[2\]
*1116 data_reg\[27\]\[3\]
*1117 data_reg\[27\]\[4\]
*1118 data_reg\[27\]\[5\]
*1119 data_reg\[27\]\[6\]
*1120 data_reg\[27\]\[7\]
*1121 data_reg\[28\]\[0\]
*1122 data_reg\[28\]\[1\]
*1123 data_reg\[28\]\[2\]
*1124 data_reg\[28\]\[3\]
*1125 data_reg\[28\]\[4\]
*1126 data_reg\[28\]\[5\]
*1127 data_reg\[28\]\[6\]
*1128 data_reg\[28\]\[7\]
*1129 data_reg\[29\]\[0\]
*1130 data_reg\[29\]\[1\]
*1131 data_reg\[29\]\[2\]
*1132 data_reg\[29\]\[3\]
*1133 data_reg\[29\]\[4\]
*1134 data_reg\[29\]\[5\]
*1135 data_reg\[29\]\[6\]
*1136 data_reg\[29\]\[7\]
*1137 data_reg\[2\]\[0\]
*1138 data_reg\[2\]\[1\]
*1139 data_reg\[2\]\[2\]
*1140 data_reg\[2\]\[3\]
*1141 data_reg\[2\]\[4\]
*1142 data_reg\[2\]\[5\]
*1143 data_reg\[2\]\[6\]
*1144 data_reg\[2\]\[7\]
*1145 data_reg\[30\]\[0\]
*1146 data_reg\[30\]\[1\]
*1147 data_reg\[30\]\[2\]
*1148 data_reg\[30\]\[3\]
*1149 data_reg\[30\]\[4\]
*1150 data_reg\[30\]\[5\]
*1151 data_reg\[30\]\[6\]
*1152 data_reg\[30\]\[7\]
*1153 data_reg\[31\]\[0\]
*1154 data_reg\[31\]\[1\]
*1155 data_reg\[31\]\[2\]
*1156 data_reg\[31\]\[3\]
*1157 data_reg\[31\]\[4\]
*1158 data_reg\[31\]\[5\]
*1159 data_reg\[31\]\[6\]
*1160 data_reg\[31\]\[7\]
*1161 data_reg\[3\]\[0\]
*1162 data_reg\[3\]\[1\]
*1163 data_reg\[3\]\[2\]
*1164 data_reg\[3\]\[3\]
*1165 data_reg\[3\]\[4\]
*1166 data_reg\[3\]\[5\]
*1167 data_reg\[3\]\[6\]
*1168 data_reg\[3\]\[7\]
*1169 data_reg\[4\]\[0\]
*1170 data_reg\[4\]\[1\]
*1171 data_reg\[4\]\[2\]
*1172 data_reg\[4\]\[3\]
*1173 data_reg\[4\]\[4\]
*1174 data_reg\[4\]\[5\]
*1175 data_reg\[4\]\[6\]
*1176 data_reg\[4\]\[7\]
*1177 data_reg\[5\]\[0\]
*1178 data_reg\[5\]\[1\]
*1179 data_reg\[5\]\[2\]
*1180 data_reg\[5\]\[3\]
*1181 data_reg\[5\]\[4\]
*1182 data_reg\[5\]\[5\]
*1183 data_reg\[5\]\[6\]
*1184 data_reg\[5\]\[7\]
*1185 data_reg\[6\]\[0\]
*1186 data_reg\[6\]\[1\]
*1187 data_reg\[6\]\[2\]
*1188 data_reg\[6\]\[3\]
*1189 data_reg\[6\]\[4\]
*1190 data_reg\[6\]\[5\]
*1191 data_reg\[6\]\[6\]
*1192 data_reg\[6\]\[7\]
*1193 data_reg\[7\]\[0\]
*1194 data_reg\[7\]\[1\]
*1195 data_reg\[7\]\[2\]
*1196 data_reg\[7\]\[3\]
*1197 data_reg\[7\]\[4\]
*1198 data_reg\[7\]\[5\]
*1199 data_reg\[7\]\[6\]
*1200 data_reg\[7\]\[7\]
*1201 data_reg\[8\]\[0\]
*1202 data_reg\[8\]\[1\]
*1203 data_reg\[8\]\[2\]
*1204 data_reg\[8\]\[3\]
*1205 data_reg\[8\]\[4\]
*1206 data_reg\[8\]\[5\]
*1207 data_reg\[8\]\[6\]
*1208 data_reg\[8\]\[7\]
*1209 data_reg\[9\]\[0\]
*1210 data_reg\[9\]\[1\]
*1211 data_reg\[9\]\[2\]
*1212 data_reg\[9\]\[3\]
*1213 data_reg\[9\]\[4\]
*1214 data_reg\[9\]\[5\]
*1215 data_reg\[9\]\[6\]
*1216 data_reg\[9\]\[7\]
*1217 net1
*1218 net10
*1219 net100
*1220 net101
*1221 net102
*1222 net103
*1223 net104
*1224 net105
*1225 net106
*1226 net107
*1227 net108
*1228 net109
*1229 net11
*1230 net110
*1231 net111
*1232 net112
*1233 net113
*1234 net114
*1235 net115
*1236 net116
*1237 net117
*1238 net118
*1239 net119
*1240 net12
*1241 net120
*1242 net121
*1243 net122
*1244 net123
*1245 net124
*1246 net125
*1247 net126
*1248 net127
*1249 net128
*1250 net129
*1251 net13
*1252 net130
*1253 net131
*1254 net132
*1255 net133
*1256 net134
*1257 net135
*1258 net136
*1259 net137
*1260 net138
*1261 net139
*1262 net14
*1263 net140
*1264 net141
*1265 net142
*1266 net143
*1267 net144
*1268 net145
*1269 net146
*1270 net147
*1271 net148
*1272 net149
*1273 net15
*1274 net150
*1275 net151
*1276 net152
*1277 net153
*1278 net154
*1279 net155
*1280 net156
*1281 net157
*1282 net158
*1283 net159
*1284 net16
*1285 net160
*1286 net161
*1287 net162
*1288 net163
*1289 net164
*1290 net165
*1291 net166
*1292 net167
*1293 net168
*1294 net169
*1295 net17
*1296 net170
*1297 net171
*1298 net172
*1299 net173
*1300 net174
*1301 net175
*1302 net176
*1303 net177
*1304 net178
*1305 net179
*1306 net18
*1307 net180
*1308 net181
*1309 net182
*1310 net183
*1311 net184
*1312 net185
*1313 net186
*1314 net187
*1315 net188
*1316 net189
*1317 net19
*1318 net190
*1319 net191
*1320 net192
*1321 net193
*1322 net194
*1323 net195
*1324 net196
*1325 net197
*1326 net198
*1327 net199
*1328 net2
*1329 net20
*1330 net200
*1331 net201
*1332 net202
*1333 net203
*1334 net204
*1335 net205
*1336 net206
*1337 net207
*1338 net208
*1339 net209
*1340 net21
*1341 net210
*1342 net211
*1343 net212
*1344 net213
*1345 net214
*1346 net215
*1347 net216
*1348 net217
*1349 net218
*1350 net219
*1351 net22
*1352 net220
*1353 net221
*1354 net222
*1355 net223
*1356 net224
*1357 net225
*1358 net226
*1359 net227
*1360 net228
*1361 net229
*1362 net23
*1363 net230
*1364 net231
*1365 net232
*1366 net233
*1367 net234
*1368 net235
*1369 net236
*1370 net237
*1371 net238
*1372 net239
*1373 net24
*1374 net240
*1375 net241
*1376 net242
*1377 net243
*1378 net244
*1379 net245
*1380 net246
*1381 net247
*1382 net248
*1383 net249
*1384 net25
*1385 net250
*1386 net251
*1387 net252
*1388 net253
*1389 net254
*1390 net255
*1391 net256
*1392 net257
*1393 net258
*1394 net259
*1395 net26
*1396 net260
*1397 net261
*1398 net262
*1399 net263
*1400 net264
*1401 net265
*1402 net266
*1403 net267
*1404 net268
*1405 net269
*1406 net27
*1407 net270
*1408 net271
*1409 net272
*1410 net273
*1411 net274
*1412 net275
*1413 net276
*1414 net277
*1415 net278
*1416 net279
*1417 net28
*1418 net280
*1419 net281
*1420 net282
*1421 net283
*1422 net284
*1423 net285
*1424 net286
*1425 net287
*1426 net288
*1427 net289
*1428 net29
*1429 net290
*1430 net291
*1431 net292
*1432 net293
*1433 net294
*1434 net295
*1435 net296
*1436 net297
*1437 net298
*1438 net299
*1439 net3
*1440 net30
*1441 net300
*1442 net301
*1443 net302
*1444 net303
*1445 net304
*1446 net305
*1447 net306
*1448 net307
*1449 net308
*1450 net309
*1451 net31
*1452 net310
*1453 net311
*1454 net312
*1455 net313
*1456 net314
*1457 net315
*1458 net316
*1459 net32
*1460 net33
*1461 net34
*1462 net35
*1463 net36
*1464 net37
*1465 net38
*1466 net39
*1467 net4
*1468 net40
*1469 net41
*1470 net42
*1471 net43
*1472 net44
*1473 net45
*1474 net46
*1475 net47
*1476 net48
*1477 net49
*1478 net5
*1479 net50
*1480 net51
*1481 net52
*1482 net53
*1483 net54
*1484 net55
*1485 net56
*1486 net57
*1487 net58
*1488 net59
*1489 net6
*1490 net60
*1491 net61
*1492 net62
*1493 net63
*1494 net64
*1495 net65
*1496 net66
*1497 net67
*1498 net68
*1499 net69
*1500 net7
*1501 net70
*1502 net71
*1503 net72
*1504 net73
*1505 net74
*1506 net75
*1507 net76
*1508 net77
*1509 net78
*1510 net79
*1511 net8
*1512 net80
*1513 net81
*1514 net82
*1515 net83
*1516 net84
*1517 net85
*1518 net86
*1519 net87
*1520 net88
*1521 net89
*1522 net9
*1523 net90
*1524 net91
*1525 net92
*1526 net93
*1527 net94
*1528 net95
*1529 net96
*1530 net97
*1531 net98
*1532 net99
*1533 pulse_duration\[0\]
*1534 pulse_duration\[10\]
*1535 pulse_duration\[11\]
*1536 pulse_duration\[1\]
*1537 pulse_duration\[2\]
*1538 pulse_duration\[3\]
*1539 pulse_duration\[4\]
*1540 pulse_duration\[5\]
*1541 pulse_duration\[6\]
*1542 pulse_duration\[7\]
*1543 pulse_duration\[8\]
*1544 pulse_duration\[9\]
*1545 state
*1546 temperature_output\[0\]
*1547 temperature_output\[10\]
*1548 temperature_output\[11\]
*1549 temperature_output\[12\]
*1550 temperature_output\[13\]
*1551 temperature_output\[14\]
*1552 temperature_output\[15\]
*1553 temperature_output\[1\]
*1554 temperature_output\[2\]
*1555 temperature_output\[3\]
*1556 temperature_output\[4\]
*1557 temperature_output\[5\]
*1558 temperature_output\[6\]
*1559 temperature_output\[7\]
*1560 temperature_output\[8\]
*1561 temperature_output\[9\]
*1562 ANTENNA_1
*1563 ANTENNA_2
*1564 FILLER_0_0_109
*1565 FILLER_0_0_113
*1566 FILLER_0_0_125
*1567 FILLER_0_0_137
*1568 FILLER_0_0_141
*1569 FILLER_0_0_15
*1570 FILLER_0_0_153
*1571 FILLER_0_0_165
*1572 FILLER_0_0_169
*1573 FILLER_0_0_181
*1574 FILLER_0_0_193
*1575 FILLER_0_0_197
*1576 FILLER_0_0_209
*1577 FILLER_0_0_221
*1578 FILLER_0_0_225
*1579 FILLER_0_0_237
*1580 FILLER_0_0_249
*1581 FILLER_0_0_253
*1582 FILLER_0_0_265
*1583 FILLER_0_0_27
*1584 FILLER_0_0_277
*1585 FILLER_0_0_281
*1586 FILLER_0_0_29
*1587 FILLER_0_0_293
*1588 FILLER_0_0_3
*1589 FILLER_0_0_305
*1590 FILLER_0_0_309
*1591 FILLER_0_0_321
*1592 FILLER_0_0_333
*1593 FILLER_0_0_337
*1594 FILLER_0_0_349
*1595 FILLER_0_0_357
*1596 FILLER_0_0_41
*1597 FILLER_0_0_53
*1598 FILLER_0_0_57
*1599 FILLER_0_0_69
*1600 FILLER_0_0_81
*1601 FILLER_0_0_85
*1602 FILLER_0_0_97
*1603 FILLER_0_10_104
*1604 FILLER_0_10_116
*1605 FILLER_0_10_124
*1606 FILLER_0_10_137
*1607 FILLER_0_10_141
*1608 FILLER_0_10_15
*1609 FILLER_0_10_192
*1610 FILLER_0_10_197
*1611 FILLER_0_10_231
*1612 FILLER_0_10_27
*1613 FILLER_0_10_270
*1614 FILLER_0_10_287
*1615 FILLER_0_10_29
*1616 FILLER_0_10_299
*1617 FILLER_0_10_3
*1618 FILLER_0_10_307
*1619 FILLER_0_10_309
*1620 FILLER_0_10_321
*1621 FILLER_0_10_333
*1622 FILLER_0_10_345
*1623 FILLER_0_10_357
*1624 FILLER_0_10_76
*1625 FILLER_0_11_119
*1626 FILLER_0_11_139
*1627 FILLER_0_11_164
*1628 FILLER_0_11_169
*1629 FILLER_0_11_179
*1630 FILLER_0_11_225
*1631 FILLER_0_11_253
*1632 FILLER_0_11_3
*1633 FILLER_0_11_301
*1634 FILLER_0_11_313
*1635 FILLER_0_11_325
*1636 FILLER_0_11_333
*1637 FILLER_0_11_337
*1638 FILLER_0_11_34
*1639 FILLER_0_11_349
*1640 FILLER_0_11_357
*1641 FILLER_0_11_42
*1642 FILLER_0_11_57
*1643 FILLER_0_11_80
*1644 FILLER_0_11_92
*1645 FILLER_0_12_100
*1646 FILLER_0_12_138
*1647 FILLER_0_12_141
*1648 FILLER_0_12_167
*1649 FILLER_0_12_179
*1650 FILLER_0_12_187
*1651 FILLER_0_12_197
*1652 FILLER_0_12_206
*1653 FILLER_0_12_220
*1654 FILLER_0_12_232
*1655 FILLER_0_12_244
*1656 FILLER_0_12_27
*1657 FILLER_0_12_285
*1658 FILLER_0_12_289
*1659 FILLER_0_12_29
*1660 FILLER_0_12_3
*1661 FILLER_0_12_307
*1662 FILLER_0_12_309
*1663 FILLER_0_12_321
*1664 FILLER_0_12_333
*1665 FILLER_0_12_345
*1666 FILLER_0_12_357
*1667 FILLER_0_12_41
*1668 FILLER_0_12_63
*1669 FILLER_0_12_67
*1670 FILLER_0_12_77
*1671 FILLER_0_12_83
*1672 FILLER_0_12_96
*1673 FILLER_0_13_104
*1674 FILLER_0_13_110
*1675 FILLER_0_13_113
*1676 FILLER_0_13_124
*1677 FILLER_0_13_154
*1678 FILLER_0_13_161
*1679 FILLER_0_13_167
*1680 FILLER_0_13_169
*1681 FILLER_0_13_188
*1682 FILLER_0_13_198
*1683 FILLER_0_13_206
*1684 FILLER_0_13_233
*1685 FILLER_0_13_260
*1686 FILLER_0_13_271
*1687 FILLER_0_13_281
*1688 FILLER_0_13_309
*1689 FILLER_0_13_315
*1690 FILLER_0_13_327
*1691 FILLER_0_13_335
*1692 FILLER_0_13_337
*1693 FILLER_0_13_349
*1694 FILLER_0_13_357
*1695 FILLER_0_13_54
*1696 FILLER_0_13_60
*1697 FILLER_0_13_72
*1698 FILLER_0_13_77
*1699 FILLER_0_14_11
*1700 FILLER_0_14_121
*1701 FILLER_0_14_133
*1702 FILLER_0_14_139
*1703 FILLER_0_14_173
*1704 FILLER_0_14_241
*1705 FILLER_0_14_245
*1706 FILLER_0_14_249
*1707 FILLER_0_14_285
*1708 FILLER_0_14_29
*1709 FILLER_0_14_292
*1710 FILLER_0_14_296
*1711 FILLER_0_14_3
*1712 FILLER_0_14_306
*1713 FILLER_0_14_309
*1714 FILLER_0_14_329
*1715 FILLER_0_14_344
*1716 FILLER_0_14_354
*1717 FILLER_0_14_44
*1718 FILLER_0_14_63
*1719 FILLER_0_14_67
*1720 FILLER_0_14_85
*1721 FILLER_0_14_97
*1722 FILLER_0_15_157
*1723 FILLER_0_15_167
*1724 FILLER_0_15_169
*1725 FILLER_0_15_173
*1726 FILLER_0_15_191
*1727 FILLER_0_15_234
*1728 FILLER_0_15_246
*1729 FILLER_0_15_264
*1730 FILLER_0_15_27
*1731 FILLER_0_15_277
*1732 FILLER_0_15_289
*1733 FILLER_0_15_293
*1734 FILLER_0_15_3
*1735 FILLER_0_15_310
*1736 FILLER_0_15_316
*1737 FILLER_0_15_334
*1738 FILLER_0_15_353
*1739 FILLER_0_15_357
*1740 FILLER_0_15_44
*1741 FILLER_0_15_57
*1742 FILLER_0_15_63
*1743 FILLER_0_15_80
*1744 FILLER_0_15_88
*1745 FILLER_0_15_93
*1746 FILLER_0_16_112
*1747 FILLER_0_16_116
*1748 FILLER_0_16_126
*1749 FILLER_0_16_15
*1750 FILLER_0_16_152
*1751 FILLER_0_16_163
*1752 FILLER_0_16_192
*1753 FILLER_0_16_197
*1754 FILLER_0_16_209
*1755 FILLER_0_16_221
*1756 FILLER_0_16_229
*1757 FILLER_0_16_236
*1758 FILLER_0_16_24
*1759 FILLER_0_16_244
*1760 FILLER_0_16_250
*1761 FILLER_0_16_253
*1762 FILLER_0_16_265
*1763 FILLER_0_16_272
*1764 FILLER_0_16_276
*1765 FILLER_0_16_293
*1766 FILLER_0_16_3
*1767 FILLER_0_16_306
*1768 FILLER_0_16_320
*1769 FILLER_0_16_344
*1770 FILLER_0_16_356
*1771 FILLER_0_16_37
*1772 FILLER_0_16_57
*1773 FILLER_0_16_68
*1774 FILLER_0_16_80
*1775 FILLER_0_17_103
*1776 FILLER_0_17_110
*1777 FILLER_0_17_113
*1778 FILLER_0_17_117
*1779 FILLER_0_17_139
*1780 FILLER_0_17_156
*1781 FILLER_0_17_166
*1782 FILLER_0_17_185
*1783 FILLER_0_17_191
*1784 FILLER_0_17_201
*1785 FILLER_0_17_223
*1786 FILLER_0_17_225
*1787 FILLER_0_17_235
*1788 FILLER_0_17_26
*1789 FILLER_0_17_260
*1790 FILLER_0_17_278
*1791 FILLER_0_17_281
*1792 FILLER_0_17_312
*1793 FILLER_0_17_330
*1794 FILLER_0_17_337
*1795 FILLER_0_17_348
*1796 FILLER_0_17_39
*1797 FILLER_0_17_49
*1798 FILLER_0_17_76
*1799 FILLER_0_17_88
*1800 FILLER_0_18_101
*1801 FILLER_0_18_120
*1802 FILLER_0_18_136
*1803 FILLER_0_18_169
*1804 FILLER_0_18_195
*1805 FILLER_0_18_239
*1806 FILLER_0_18_24
*1807 FILLER_0_18_291
*1808 FILLER_0_18_3
*1809 FILLER_0_18_309
*1810 FILLER_0_18_336
*1811 FILLER_0_18_356
*1812 FILLER_0_18_37
*1813 FILLER_0_19_100
*1814 FILLER_0_19_13
*1815 FILLER_0_19_130
*1816 FILLER_0_19_135
*1817 FILLER_0_19_147
*1818 FILLER_0_19_151
*1819 FILLER_0_19_163
*1820 FILLER_0_19_167
*1821 FILLER_0_19_177
*1822 FILLER_0_19_189
*1823 FILLER_0_19_195
*1824 FILLER_0_19_205
*1825 FILLER_0_19_217
*1826 FILLER_0_19_223
*1827 FILLER_0_19_225
*1828 FILLER_0_19_233
*1829 FILLER_0_19_243
*1830 FILLER_0_19_249
*1831 FILLER_0_19_259
*1832 FILLER_0_19_273
*1833 FILLER_0_19_279
*1834 FILLER_0_19_281
*1835 FILLER_0_19_286
*1836 FILLER_0_19_292
*1837 FILLER_0_19_3
*1838 FILLER_0_19_316
*1839 FILLER_0_19_32
*1840 FILLER_0_19_320
*1841 FILLER_0_19_334
*1842 FILLER_0_19_337
*1843 FILLER_0_19_345
*1844 FILLER_0_19_354
*1845 FILLER_0_19_57
*1846 FILLER_0_19_66
*1847 FILLER_0_19_75
*1848 FILLER_0_1_105
*1849 FILLER_0_1_111
*1850 FILLER_0_1_113
*1851 FILLER_0_1_125
*1852 FILLER_0_1_137
*1853 FILLER_0_1_149
*1854 FILLER_0_1_15
*1855 FILLER_0_1_161
*1856 FILLER_0_1_167
*1857 FILLER_0_1_169
*1858 FILLER_0_1_181