* NGSPICE file created from PulseDurationMeasurement.ext - technology: sky130A

* Black-box entry subcircuit for sky130_fd_sc_hd__dfxtp_1 abstract view
.subckt sky130_fd_sc_hd__dfxtp_1 CLK D VGND VNB VPB VPWR Q
.ends

* Black-box entry subcircuit for sky130_fd_sc_hd__tapvpwrvgnd_1 abstract view
.subckt sky130_fd_sc_hd__tapvpwrvgnd_1 VGND VPWR
.ends

* Black-box entry subcircuit for sky130_fd_sc_hd__fill_1 abstract view
.subckt sky130_fd_sc_hd__fill_1 VGND VNB VPB VPWR
.ends

* Black-box entry subcircuit for sky130_fd_sc_hd__fill_2 abstract view
.subckt sky130_fd_sc_hd__fill_2 VGND VNB VPB VPWR
.ends

* Black-box entry subcircuit for sky130_fd_sc_hd__clkbuf_1 abstract view
.subckt sky130_fd_sc_hd__clkbuf_1 A VGND VNB VPB VPWR X
.ends

* Black-box entry subcircuit for sky130_ef_sc_hd__decap_12 abstract view
.subckt sky130_ef_sc_hd__decap_12 VPWR VGND VPB VNB
.ends

* Black-box entry subcircuit for sky130_fd_sc_hd__mux4_1 abstract view
.subckt sky130_fd_sc_hd__mux4_1 A0 A1 A2 A3 S0 S1 VGND VNB VPB VPWR X
.ends

* Black-box entry subcircuit for sky130_fd_sc_hd__mux2_1 abstract view
.subckt sky130_fd_sc_hd__mux2_1 A0 A1 S VGND VNB VPB VPWR X
.ends

* Black-box entry subcircuit for sky130_fd_sc_hd__o211a_1 abstract view
.subckt sky130_fd_sc_hd__o211a_1 A1 A2 B1 C1 VGND VNB VPB VPWR X
.ends

* Black-box entry subcircuit for sky130_fd_sc_hd__decap_4 abstract view
.subckt sky130_fd_sc_hd__decap_4 VGND VNB VPB VPWR
.ends

* Black-box entry subcircuit for sky130_fd_sc_hd__decap_8 abstract view
.subckt sky130_fd_sc_hd__decap_8 VGND VNB VPB VPWR
.ends

* Black-box entry subcircuit for sky130_fd_sc_hd__dlygate4sd3_1 abstract view
.subckt sky130_fd_sc_hd__dlygate4sd3_1 A VGND VNB VPB VPWR X
.ends

* Black-box entry subcircuit for sky130_fd_sc_hd__buf_2 abstract view
.subckt sky130_fd_sc_hd__buf_2 A VGND VNB VPB VPWR X
.ends

* Black-box entry subcircuit for sky130_fd_sc_hd__buf_4 abstract view
.subckt sky130_fd_sc_hd__buf_4 A VGND VNB VPB VPWR X
.ends

* Black-box entry subcircuit for sky130_fd_sc_hd__decap_3 abstract view
.subckt sky130_fd_sc_hd__decap_3 VGND VNB VPB VPWR
.ends

* Black-box entry subcircuit for sky130_fd_sc_hd__decap_6 abstract view
.subckt sky130_fd_sc_hd__decap_6 VGND VNB VPB VPWR
.ends

* Black-box entry subcircuit for sky130_fd_sc_hd__inv_2 abstract view
.subckt sky130_fd_sc_hd__inv_2 A VGND VNB VPB VPWR Y
.ends

* Black-box entry subcircuit for sky130_fd_sc_hd__dfxtp_2 abstract view
.subckt sky130_fd_sc_hd__dfxtp_2 CLK D VGND VNB VPB VPWR Q
.ends

* Black-box entry subcircuit for sky130_fd_sc_hd__a22o_1 abstract view
.subckt sky130_fd_sc_hd__a22o_1 A1 A2 B1 B2 VGND VNB VPB VPWR X
.ends

* Black-box entry subcircuit for sky130_fd_sc_hd__clkbuf_4 abstract view
.subckt sky130_fd_sc_hd__clkbuf_4 A VGND VNB VPB VPWR X
.ends

* Black-box entry subcircuit for sky130_fd_sc_hd__a211o_1 abstract view
.subckt sky130_fd_sc_hd__a211o_1 A1 A2 B1 C1 VGND VNB VPB VPWR X
.ends

* Black-box entry subcircuit for sky130_fd_sc_hd__a32o_1 abstract view
.subckt sky130_fd_sc_hd__a32o_1 A1 A2 A3 B1 B2 VGND VNB VPB VPWR X
.ends

* Black-box entry subcircuit for sky130_fd_sc_hd__a21o_1 abstract view
.subckt sky130_fd_sc_hd__a21o_1 A1 A2 B1 VGND VNB VPB VPWR X
.ends

* Black-box entry subcircuit for sky130_fd_sc_hd__and3_1 abstract view
.subckt sky130_fd_sc_hd__and3_1 A B C VGND VNB VPB VPWR X
.ends

* Black-box entry subcircuit for sky130_fd_sc_hd__and2_1 abstract view
.subckt sky130_fd_sc_hd__and2_1 A B VGND VNB VPB VPWR X
.ends

* Black-box entry subcircuit for sky130_fd_sc_hd__a221o_1 abstract view
.subckt sky130_fd_sc_hd__a221o_1 A1 A2 B1 B2 C1 VGND VNB VPB VPWR X
.ends

* Black-box entry subcircuit for sky130_fd_sc_hd__nand2_1 abstract view
.subckt sky130_fd_sc_hd__nand2_1 A B VGND VNB VPB VPWR Y
.ends

* Black-box entry subcircuit for sky130_fd_sc_hd__or2_1 abstract view
.subckt sky130_fd_sc_hd__or2_1 A B VGND VNB VPB VPWR X
.ends

* Black-box entry subcircuit for sky130_fd_sc_hd__nor2_1 abstract view
.subckt sky130_fd_sc_hd__nor2_1 A B VGND VNB VPB VPWR Y
.ends

* Black-box entry subcircuit for sky130_fd_sc_hd__nand2_4 abstract view
.subckt sky130_fd_sc_hd__nand2_4 A B VGND VNB VPB VPWR Y
.ends

* Black-box entry subcircuit for sky130_fd_sc_hd__nand2_2 abstract view
.subckt sky130_fd_sc_hd__nand2_2 A B VGND VNB VPB VPWR Y
.ends

* Black-box entry subcircuit for sky130_fd_sc_hd__clkbuf_8 abstract view
.subckt sky130_fd_sc_hd__clkbuf_8 A VGND VNB VPB VPWR X
.ends

* Black-box entry subcircuit for sky130_fd_sc_hd__o21a_1 abstract view
.subckt sky130_fd_sc_hd__o21a_1 A1 A2 B1 VGND VNB VPB VPWR X
.ends

* Black-box entry subcircuit for sky130_fd_sc_hd__and2b_1 abstract view
.subckt sky130_fd_sc_hd__and2b_1 A_N B VGND VNB VPB VPWR X
.ends

* Black-box entry subcircuit for sky130_fd_sc_hd__a31o_1 abstract view
.subckt sky130_fd_sc_hd__a31o_1 A1 A2 A3 B1 VGND VNB VPB VPWR X
.ends

* Black-box entry subcircuit for sky130_fd_sc_hd__clkbuf_16 abstract view
.subckt sky130_fd_sc_hd__clkbuf_16 A VGND VNB VPB VPWR X
.ends

* Black-box entry subcircuit for sky130_fd_sc_hd__o221a_1 abstract view
.subckt sky130_fd_sc_hd__o221a_1 A1 A2 B1 B2 C1 VGND VNB VPB VPWR X
.ends

* Black-box entry subcircuit for sky130_fd_sc_hd__mux4_2 abstract view
.subckt sky130_fd_sc_hd__mux4_2 A0 A1 A2 A3 S0 S1 VGND VNB VPB VPWR X
.ends

* Black-box entry subcircuit for sky130_fd_sc_hd__a2111o_1 abstract view
.subckt sky130_fd_sc_hd__a2111o_1 A1 A2 B1 C1 D1 VGND VNB VPB VPWR X
.ends

* Black-box entry subcircuit for sky130_fd_sc_hd__or4_2 abstract view
.subckt sky130_fd_sc_hd__or4_2 A B C D VGND VNB VPB VPWR X
.ends

* Black-box entry subcircuit for sky130_fd_sc_hd__clkbuf_2 abstract view
.subckt sky130_fd_sc_hd__clkbuf_2 A VGND VNB VPB VPWR X
.ends

* Black-box entry subcircuit for sky130_fd_sc_hd__and2_2 abstract view
.subckt sky130_fd_sc_hd__and2_2 A B VGND VNB VPB VPWR X
.ends

* Black-box entry subcircuit for sky130_fd_sc_hd__a21boi_1 abstract view
.subckt sky130_fd_sc_hd__a21boi_1 A1 A2 B1_N VGND VNB VPB VPWR Y
.ends

* Black-box entry subcircuit for sky130_fd_sc_hd__nor2_8 abstract view
.subckt sky130_fd_sc_hd__nor2_8 A B VGND VNB VPB VPWR Y
.ends

* Black-box entry subcircuit for sky130_fd_sc_hd__a2bb2o_1 abstract view
.subckt sky130_fd_sc_hd__a2bb2o_1 A1_N A2_N B1 B2 VGND VNB VPB VPWR X
.ends

* Black-box entry subcircuit for sky130_fd_sc_hd__nor2_4 abstract view
.subckt sky130_fd_sc_hd__nor2_4 A B VGND VNB VPB VPWR Y
.ends

* Black-box entry subcircuit for sky130_fd_sc_hd__o21ai_1 abstract view
.subckt sky130_fd_sc_hd__o21ai_1 A1 A2 B1 VGND VNB VPB VPWR Y
.ends

* Black-box entry subcircuit for sky130_fd_sc_hd__a41o_1 abstract view
.subckt sky130_fd_sc_hd__a41o_1 A1 A2 A3 A4 B1 VGND VNB VPB VPWR X
.ends

* Black-box entry subcircuit for sky130_fd_sc_hd__a21oi_1 abstract view
.subckt sky130_fd_sc_hd__a21oi_1 A1 A2 B1 VGND VNB VPB VPWR Y
.ends

* Black-box entry subcircuit for sky130_fd_sc_hd__a311o_4 abstract view
.subckt sky130_fd_sc_hd__a311o_4 A1 A2 A3 B1 C1 VGND VNB VPB VPWR X
.ends

* Black-box entry subcircuit for sky130_fd_sc_hd__nor3b_2 abstract view
.subckt sky130_fd_sc_hd__nor3b_2 A B C_N VGND VNB VPB VPWR Y
.ends

* Black-box entry subcircuit for sky130_fd_sc_hd__and4_1 abstract view
.subckt sky130_fd_sc_hd__and4_1 A B C D VGND VNB VPB VPWR X
.ends

* Black-box entry subcircuit for sky130_fd_sc_hd__or2_2 abstract view
.subckt sky130_fd_sc_hd__or2_2 A B VGND VNB VPB VPWR X
.ends

* Black-box entry subcircuit for sky130_fd_sc_hd__and3b_1 abstract view
.subckt sky130_fd_sc_hd__and3b_1 A_N B C VGND VNB VPB VPWR X
.ends

* Black-box entry subcircuit for sky130_fd_sc_hd__dlymetal6s2s_1 abstract view
.subckt sky130_fd_sc_hd__dlymetal6s2s_1 A VGND VNB VPB VPWR X
.ends

* Black-box entry subcircuit for sky130_fd_sc_hd__buf_1 abstract view
.subckt sky130_fd_sc_hd__buf_1 A VGND VNB VPB VPWR X
.ends

* Black-box entry subcircuit for sky130_fd_sc_hd__or4_1 abstract view
.subckt sky130_fd_sc_hd__or4_1 A B C D VGND VNB VPB VPWR X
.ends

* Black-box entry subcircuit for sky130_fd_sc_hd__or2b_2 abstract view
.subckt sky130_fd_sc_hd__or2b_2 A B_N VGND VNB VPB VPWR X
.ends

* Black-box entry subcircuit for sky130_fd_sc_hd__a311o_1 abstract view
.subckt sky130_fd_sc_hd__a311o_1 A1 A2 A3 B1 C1 VGND VNB VPB VPWR X
.ends

* Black-box entry subcircuit for sky130_fd_sc_hd__nor2b_2 abstract view
.subckt sky130_fd_sc_hd__nor2b_2 A B_N VGND VNB VPB VPWR Y
.ends

* Black-box entry subcircuit for sky130_fd_sc_hd__o21ba_1 abstract view
.subckt sky130_fd_sc_hd__o21ba_1 A1 A2 B1_N VGND VNB VPB VPWR X
.ends

* Black-box entry subcircuit for sky130_fd_sc_hd__buf_6 abstract view
.subckt sky130_fd_sc_hd__buf_6 A VGND VNB VPB VPWR X
.ends

* Black-box entry subcircuit for sky130_fd_sc_hd__or4b_1 abstract view
.subckt sky130_fd_sc_hd__or4b_1 A B C D_N VGND VNB VPB VPWR X
.ends

* Black-box entry subcircuit for sky130_fd_sc_hd__dfxtp_4 abstract view
.subckt sky130_fd_sc_hd__dfxtp_4 CLK D VGND VNB VPB VPWR Q
.ends

* Black-box entry subcircuit for sky130_fd_sc_hd__nor3_2 abstract view
.subckt sky130_fd_sc_hd__nor3_2 A B C VGND VNB VPB VPWR Y
.ends

* Black-box entry subcircuit for sky130_fd_sc_hd__diode_2 abstract view
.subckt sky130_fd_sc_hd__diode_2 DIODE VGND VNB VPB VPWR
.ends

* Black-box entry subcircuit for sky130_fd_sc_hd__nand2b_4 abstract view
.subckt sky130_fd_sc_hd__nand2b_4 A_N B VGND VNB VPB VPWR Y
.ends

* Black-box entry subcircuit for sky130_fd_sc_hd__a211o_4 abstract view
.subckt sky130_fd_sc_hd__a211o_4 A1 A2 B1 C1 VGND VNB VPB VPWR X
.ends

* Black-box entry subcircuit for sky130_fd_sc_hd__o311a_1 abstract view
.subckt sky130_fd_sc_hd__o311a_1 A1 A2 A3 B1 C1 VGND VNB VPB VPWR X
.ends

.subckt PulseDurationMeasurement EN RS RW VGND VPWR clk data_in[0] data_in[1] data_in[2]
+ data_in[3] data_in[4] data_in[5] data_in[6] data_in[7] data_out[0] data_out[1] data_out[2]
+ data_out[3] data_out[4] data_out[5] data_out[6] data_out[7] reset_n signal_in
X_2037_ clknet_leaf_24_clk _0009_ VGND VGND VPWR VPWR temperature_output\[1\] sky130_fd_sc_hd__dfxtp_1
XTAP_TAPCELL_ROW_60_492 VGND VPWR sky130_fd_sc_hd__tapvpwrvgnd_1
XFILLER_0_43_81 VGND VGND VPWR VPWR sky130_fd_sc_hd__fill_1
XFILLER_0_7_81 VGND VGND VPWR VPWR sky130_fd_sc_hd__fill_2
XTAP_TAPCELL_ROW_8_181 VGND VPWR sky130_fd_sc_hd__tapvpwrvgnd_1
X_1270_ _0321_ VGND VGND VPWR VPWR _0153_ sky130_fd_sc_hd__clkbuf_1
XFILLER_0_3_39 VPWR VGND VPWR VGND sky130_ef_sc_hd__decap_12
X_1606_ data_reg\[8\]\[1\] data_reg\[9\]\[1\] data_reg\[10\]\[1\] data_reg\[11\]\[1\]
+ _0494_ _0495_ VGND VGND VPWR VPWR _0521_ sky130_fd_sc_hd__mux4_1
X_0985_ _0732_ net212 _0728_ VGND VGND VPWR VPWR _0733_ sky130_fd_sc_hd__mux2_1
X_1399_ net5 net258 _0389_ VGND VGND VPWR VPWR _0391_ sky130_fd_sc_hd__mux2_1
X_1537_ count\[1\] count\[0\] _0671_ _0464_ VGND VGND VPWR VPWR _0277_ sky130_fd_sc_hd__o211a_1
X_1468_ net156 net116 _0745_ VGND VGND VPWR VPWR _0427_ sky130_fd_sc_hd__mux2_1
XFILLER_0_52_309 VGND VGND VPWR VPWR sky130_fd_sc_hd__decap_4
XFILLER_0_49_199 VGND VGND VPWR VPWR sky130_fd_sc_hd__decap_8
Xhold181 data_reg\[5\]\[3\] VGND VGND VPWR VPWR net206 sky130_fd_sc_hd__dlygate4sd3_1
Xhold192 pulse_duration\[1\] VGND VGND VPWR VPWR net217 sky130_fd_sc_hd__dlygate4sd3_1
Xhold170 data_reg\[14\]\[6\] VGND VGND VPWR VPWR net195 sky130_fd_sc_hd__dlygate4sd3_1
XTAP_TAPCELL_ROW_5_162 VGND VPWR sky130_fd_sc_hd__tapvpwrvgnd_1
XTAP_TAPCELL_ROW_28_297 VGND VPWR sky130_fd_sc_hd__tapvpwrvgnd_1
XFILLER_0_59_36 VGND VGND VPWR VPWR sky130_fd_sc_hd__decap_4
XFILLER_0_55_169 VGND VGND VPWR VPWR sky130_fd_sc_hd__fill_1
XTAP_TAPCELL_ROW_11_197 VGND VPWR sky130_fd_sc_hd__tapvpwrvgnd_1
X_1253_ net11 VGND VGND VPWR VPWR _0311_ sky130_fd_sc_hd__buf_2
X_1322_ _0886_ net177 _0342_ VGND VGND VPWR VPWR _0349_ sky130_fd_sc_hd__mux2_1
XTAP_TAPCELL_ROW_19_242 VGND VPWR sky130_fd_sc_hd__tapvpwrvgnd_1
X_1184_ _0848_ VGND VGND VPWR VPWR _0117_ sky130_fd_sc_hd__clkbuf_1
XFILLER_0_46_125 VGND VGND VPWR VPWR sky130_fd_sc_hd__fill_1
X_0968_ _0717_ VGND VGND VPWR VPWR _0718_ sky130_fd_sc_hd__buf_4
XFILLER_0_6_277 VPWR VGND VPWR VGND sky130_ef_sc_hd__decap_12
XFILLER_0_40_82 VGND VGND VPWR VPWR sky130_fd_sc_hd__fill_2
X_0899_ _0676_ VGND VGND VPWR VPWR _0012_ sky130_fd_sc_hd__clkbuf_1
XTAP_TAPCELL_ROW_2_143 VGND VPWR sky130_fd_sc_hd__tapvpwrvgnd_1
XTAP_TAPCELL_ROW_25_278 VGND VPWR sky130_fd_sc_hd__tapvpwrvgnd_1
XFILLER_0_52_139 VGND VGND VPWR VPWR sky130_fd_sc_hd__fill_1
XFILLER_0_37_169 VGND VGND VPWR VPWR sky130_fd_sc_hd__fill_1
XFILLER_0_25_309 VGND VGND VPWR VPWR sky130_fd_sc_hd__decap_3
XFILLER_0_0_29 VPWR VGND VPWR VGND sky130_ef_sc_hd__decap_12
X_1940_ clknet_leaf_13_clk _0180_ VGND VGND VPWR VPWR data_reg\[24\]\[0\] sky130_fd_sc_hd__dfxtp_1
X_1871_ clknet_leaf_4_clk _0111_ VGND VGND VPWR VPWR data_reg\[6\]\[3\] sky130_fd_sc_hd__dfxtp_1
XFILLER_0_51_161 VGND VGND VPWR VPWR sky130_fd_sc_hd__decap_6
XFILLER_0_3_225 VPWR VGND VPWR VGND sky130_ef_sc_hd__decap_12
X_1305_ _0886_ net229 _0333_ VGND VGND VPWR VPWR _0340_ sky130_fd_sc_hd__mux2_1
X_1236_ _0878_ VGND VGND VPWR VPWR _0139_ sky130_fd_sc_hd__clkbuf_1
X_1098_ _0798_ VGND VGND VPWR VPWR _0081_ sky130_fd_sc_hd__clkbuf_1
X_1167_ _0839_ VGND VGND VPWR VPWR _0109_ sky130_fd_sc_hd__clkbuf_1
XFILLER_0_35_82 VGND VGND VPWR VPWR sky130_fd_sc_hd__decap_3
XFILLER_0_19_147 VGND VGND VPWR VPWR sky130_fd_sc_hd__decap_4
XFILLER_0_15_353 VGND VGND VPWR VPWR sky130_fd_sc_hd__decap_4
XPHY_EDGE_ROW_8_Left_69 VGND VGND VPWR VPWR sky130_fd_sc_hd__decap_3
XFILLER_0_25_128 VGND VGND VPWR VPWR sky130_fd_sc_hd__fill_1
XFILLER_0_33_161 VGND VGND VPWR VPWR sky130_fd_sc_hd__decap_4
X_2070_ clknet_leaf_10_clk _0294_ VGND VGND VPWR VPWR net19 sky130_fd_sc_hd__dfxtp_1
XFILLER_0_56_231 VPWR VGND VPWR VGND sky130_ef_sc_hd__decap_12
XFILLER_0_48_209 VPWR VGND VPWR VGND sky130_ef_sc_hd__decap_12
X_1021_ _0755_ VGND VGND VPWR VPWR _0047_ sky130_fd_sc_hd__clkbuf_1
XFILLER_0_56_253 VGND VGND VPWR VPWR sky130_fd_sc_hd__decap_3
XTAP_TAPCELL_ROW_44_395 VGND VPWR sky130_fd_sc_hd__tapvpwrvgnd_1
X_1854_ clknet_leaf_3_clk _0094_ VGND VGND VPWR VPWR data_reg\[12\]\[2\] sky130_fd_sc_hd__dfxtp_1
X_1923_ clknet_leaf_19_clk _0163_ VGND VGND VPWR VPWR data_reg\[21\]\[7\] sky130_fd_sc_hd__dfxtp_1
X_1785_ clknet_leaf_1_clk _0033_ VGND VGND VPWR VPWR data_reg\[15\]\[1\] sky130_fd_sc_hd__dfxtp_1
XFILLER_0_12_345 VPWR VGND VPWR VGND sky130_ef_sc_hd__decap_12
XFILLER_0_34_3 VPWR VGND VPWR VGND sky130_ef_sc_hd__decap_12
X_1219_ _0867_ net277 _0865_ VGND VGND VPWR VPWR _0868_ sky130_fd_sc_hd__mux2_1
XTAP_TAPCELL_ROW_35_340 VGND VPWR sky130_fd_sc_hd__tapvpwrvgnd_1
Xhold74 data_reg\[8\]\[2\] VGND VGND VPWR VPWR net99 sky130_fd_sc_hd__dlygate4sd3_1
Xhold41 _0750_ VGND VGND VPWR VPWR net66 sky130_fd_sc_hd__dlygate4sd3_1
Xhold63 temperature_output\[13\] VGND VGND VPWR VPWR net88 sky130_fd_sc_hd__dlygate4sd3_1
Xhold52 data_reg\[3\]\[6\] VGND VGND VPWR VPWR net77 sky130_fd_sc_hd__dlygate4sd3_1
Xhold30 count\[9\] VGND VGND VPWR VPWR net55 sky130_fd_sc_hd__dlygate4sd3_1
XTAP_TAPCELL_ROW_58_476 VGND VPWR sky130_fd_sc_hd__tapvpwrvgnd_1
Xhold96 data_reg\[6\]\[0\] VGND VGND VPWR VPWR net121 sky130_fd_sc_hd__dlygate4sd3_1
Xhold85 temperature_output\[2\] VGND VGND VPWR VPWR net110 sky130_fd_sc_hd__dlygate4sd3_1
XFILLER_0_53_289 VGND VGND VPWR VPWR sky130_fd_sc_hd__fill_2
XTAP_TAPCELL_ROW_41_376 VGND VPWR sky130_fd_sc_hd__tapvpwrvgnd_1
X_1570_ net299 VGND VGND VPWR VPWR _0488_ sky130_fd_sc_hd__inv_2
XFILLER_0_21_164 VGND VGND VPWR VPWR sky130_fd_sc_hd__fill_1
X_2053_ clknet_leaf_0_clk _0277_ VGND VGND VPWR VPWR count\[1\] sky130_fd_sc_hd__dfxtp_2
XFILLER_0_20_9 VGND VGND VPWR VPWR sky130_fd_sc_hd__fill_1
XTAP_TAPCELL_ROW_32_321 VGND VPWR sky130_fd_sc_hd__tapvpwrvgnd_1
XFILLER_0_8_169 VPWR VGND VPWR VGND sky130_ef_sc_hd__decap_12
X_1004_ _0745_ VGND VGND VPWR VPWR _0746_ sky130_fd_sc_hd__buf_4
X_1768_ net8 net228 _0661_ VGND VGND VPWR VPWR _0666_ sky130_fd_sc_hd__mux2_1
XFILLER_0_44_289 VGND VGND VPWR VPWR sky130_fd_sc_hd__decap_3
X_1837_ clknet_leaf_10_clk _0077_ VGND VGND VPWR VPWR data_reg\[9\]\[1\] sky130_fd_sc_hd__dfxtp_1
X_1906_ clknet_leaf_20_clk _0146_ VGND VGND VPWR VPWR data_reg\[11\]\[6\] sky130_fd_sc_hd__dfxtp_1
X_1699_ net23 _0608_ _0609_ _0507_ VGND VGND VPWR VPWR _0610_ sky130_fd_sc_hd__a22o_1
XFILLER_0_12_197 VGND VGND VPWR VPWR sky130_fd_sc_hd__fill_1
XFILLER_0_35_278 VGND VGND VPWR VPWR sky130_fd_sc_hd__fill_2
Xoutput20 net20 VGND VGND VPWR VPWR data_out[6] sky130_fd_sc_hd__clkbuf_4
XFILLER_0_53_27 VGND VGND VPWR VPWR sky130_fd_sc_hd__fill_2
XFILLER_0_53_38 VGND VGND VPWR VPWR sky130_fd_sc_hd__fill_1
X_1622_ data_reg\[28\]\[2\] _0532_ _0533_ _0535_ VGND VGND VPWR VPWR _0536_ sky130_fd_sc_hd__a211o_1
XFILLER_0_41_215 VGND VGND VPWR VPWR sky130_fd_sc_hd__fill_1
X_1553_ _0467_ _0475_ _0476_ _0437_ net48 VGND VGND VPWR VPWR _0281_ sky130_fd_sc_hd__a32o_1
X_1484_ net44 VGND VGND VPWR VPWR _0435_ sky130_fd_sc_hd__clkbuf_1
XFILLER_0_49_348 VGND VGND VPWR VPWR sky130_fd_sc_hd__fill_2
XFILLER_0_49_304 VGND VGND VPWR VPWR sky130_fd_sc_hd__decap_3
X_2036_ clknet_leaf_25_clk _0008_ VGND VGND VPWR VPWR temperature_output\[0\] sky130_fd_sc_hd__dfxtp_1
XTAP_TAPCELL_ROW_60_493 VGND VPWR sky130_fd_sc_hd__tapvpwrvgnd_1
XFILLER_0_17_201 VGND VGND VPWR VPWR sky130_fd_sc_hd__decap_8
XFILLER_0_17_223 VGND VGND VPWR VPWR sky130_fd_sc_hd__fill_1
XFILLER_0_17_278 VGND VGND VPWR VPWR sky130_fd_sc_hd__fill_2
XPHY_EDGE_ROW_37_Left_98 VGND VGND VPWR VPWR sky130_fd_sc_hd__decap_3
XPHY_EDGE_ROW_39_Left_100 VGND VGND VPWR VPWR sky130_fd_sc_hd__decap_3
XFILLER_0_2_109 VPWR VGND VPWR VGND sky130_ef_sc_hd__decap_12
X_0984_ net6 VGND VGND VPWR VPWR _0732_ sky130_fd_sc_hd__buf_2
X_1536_ count\[1\] _0460_ _0461_ _0463_ VGND VGND VPWR VPWR _0464_ sky130_fd_sc_hd__a22o_1
X_1605_ net22 _0515_ _0519_ VGND VGND VPWR VPWR _0520_ sky130_fd_sc_hd__a21o_1
X_1398_ _0390_ VGND VGND VPWR VPWR _0212_ sky130_fd_sc_hd__clkbuf_1
X_1467_ _0426_ VGND VGND VPWR VPWR _0245_ sky130_fd_sc_hd__clkbuf_1
XFILLER_0_49_145 VPWR VGND VPWR VGND sky130_ef_sc_hd__decap_12
X_2019_ clknet_leaf_20_clk _0259_ VGND VGND VPWR VPWR data_reg\[3\]\[7\] sky130_fd_sc_hd__dfxtp_1
Xhold193 data_reg\[27\]\[3\] VGND VGND VPWR VPWR net218 sky130_fd_sc_hd__dlygate4sd3_1
Xhold171 data_reg\[24\]\[2\] VGND VGND VPWR VPWR net196 sky130_fd_sc_hd__dlygate4sd3_1
Xhold160 data_reg\[14\]\[5\] VGND VGND VPWR VPWR net185 sky130_fd_sc_hd__dlygate4sd3_1
XFILLER_0_13_281 VGND VGND VPWR VPWR sky130_fd_sc_hd__decap_4
Xhold182 data_reg\[27\]\[6\] VGND VGND VPWR VPWR net207 sky130_fd_sc_hd__dlygate4sd3_1
XFILLER_0_34_29 VGND VGND VPWR VPWR sky130_fd_sc_hd__decap_8
XTAP_TAPCELL_ROW_5_163 VGND VPWR sky130_fd_sc_hd__tapvpwrvgnd_1
XFILLER_0_55_148 VGND VGND VPWR VPWR sky130_fd_sc_hd__fill_1
XTAP_TAPCELL_ROW_28_298 VGND VPWR sky130_fd_sc_hd__tapvpwrvgnd_1
XTAP_TAPCELL_ROW_11_198 VGND VPWR sky130_fd_sc_hd__tapvpwrvgnd_1
X_1321_ _0348_ VGND VGND VPWR VPWR _0177_ sky130_fd_sc_hd__clkbuf_1
X_1252_ _0887_ VGND VGND VPWR VPWR _0146_ sky130_fd_sc_hd__clkbuf_1
XTAP_TAPCELL_ROW_19_243 VGND VPWR sky130_fd_sc_hd__tapvpwrvgnd_1
X_1183_ _0730_ net138 _0846_ VGND VGND VPWR VPWR _0848_ sky130_fd_sc_hd__mux2_1
XFILLER_0_54_192 VGND VGND VPWR VPWR sky130_fd_sc_hd__decap_4
X_0967_ address\[4\] address\[3\] address\[2\] VGND VGND VPWR VPWR _0717_ sky130_fd_sc_hd__and3_1
XFILLER_0_42_354 VGND VGND VPWR VPWR sky130_fd_sc_hd__decap_4
XFILLER_0_6_289 VPWR VGND VPWR VGND sky130_ef_sc_hd__decap_12
X_1519_ net6 net211 _0451_ VGND VGND VPWR VPWR _0454_ sky130_fd_sc_hd__mux2_1
XPHY_EDGE_ROW_12_Right_12 VGND VGND VPWR VPWR sky130_fd_sc_hd__decap_3
X_0898_ _0671_ net70 VGND VGND VPWR VPWR _0676_ sky130_fd_sc_hd__and2_1
XFILLER_0_4_83 VGND VGND VPWR VPWR sky130_fd_sc_hd__fill_1
XTAP_TAPCELL_ROW_2_144 VGND VPWR sky130_fd_sc_hd__tapvpwrvgnd_1
XPHY_EDGE_ROW_21_Right_21 VGND VGND VPWR VPWR sky130_fd_sc_hd__decap_3
XTAP_TAPCELL_ROW_25_279 VGND VPWR sky130_fd_sc_hd__tapvpwrvgnd_1
XFILLER_0_60_195 VGND VGND VPWR VPWR sky130_fd_sc_hd__fill_1
XPHY_EDGE_ROW_30_Right_30 VGND VGND VPWR VPWR sky130_fd_sc_hd__decap_3
XTAP_TAPCELL_ROW_16_224 VGND VPWR sky130_fd_sc_hd__tapvpwrvgnd_1
X_1870_ clknet_leaf_7_clk _0110_ VGND VGND VPWR VPWR data_reg\[6\]\[2\] sky130_fd_sc_hd__dfxtp_1
XFILLER_0_3_237 VPWR VGND VPWR VGND sky130_ef_sc_hd__decap_12
XPHY_EDGE_ROW_24_Left_85 VGND VGND VPWR VPWR sky130_fd_sc_hd__decap_3
X_1166_ _0730_ net234 _0837_ VGND VGND VPWR VPWR _0839_ sky130_fd_sc_hd__mux2_1
X_1304_ _0339_ VGND VGND VPWR VPWR _0169_ sky130_fd_sc_hd__clkbuf_1
X_1235_ _0742_ net148 _0865_ VGND VGND VPWR VPWR _0878_ sky130_fd_sc_hd__mux2_1
X_1097_ _0738_ net262 _0792_ VGND VGND VPWR VPWR _0798_ sky130_fd_sc_hd__mux2_1
X_1999_ clknet_leaf_8_clk _0239_ VGND VGND VPWR VPWR data_reg\[30\]\[3\] sky130_fd_sc_hd__dfxtp_1
XFILLER_0_42_195 VGND VGND VPWR VPWR sky130_fd_sc_hd__fill_1
XFILLER_0_15_310 VGND VGND VPWR VPWR sky130_fd_sc_hd__decap_6
XFILLER_0_27_181 VPWR VGND VPWR VGND sky130_ef_sc_hd__decap_12
XFILLER_0_30_357 VGND VGND VPWR VPWR sky130_fd_sc_hd__fill_1
XTAP_TAPCELL_ROW_38_360 VGND VPWR sky130_fd_sc_hd__tapvpwrvgnd_1
XFILLER_0_21_357 VGND VGND VPWR VPWR sky130_fd_sc_hd__fill_1
XFILLER_0_56_27 VGND VGND VPWR VPWR sky130_fd_sc_hd__fill_1
X_1020_ net158 net145 _0754_ VGND VGND VPWR VPWR _0755_ sky130_fd_sc_hd__mux2_1
XFILLER_0_56_265 VGND VGND VPWR VPWR sky130_fd_sc_hd__fill_1
XFILLER_0_56_243 VGND VGND VPWR VPWR sky130_fd_sc_hd__decap_8
XTAP_TAPCELL_ROW_44_396 VGND VPWR sky130_fd_sc_hd__tapvpwrvgnd_1
XFILLER_0_8_307 VGND VGND VPWR VPWR sky130_fd_sc_hd__fill_1
X_1922_ clknet_leaf_19_clk _0162_ VGND VGND VPWR VPWR data_reg\[21\]\[6\] sky130_fd_sc_hd__dfxtp_1
X_1784_ clknet_leaf_25_clk _0032_ VGND VGND VPWR VPWR data_reg\[15\]\[0\] sky130_fd_sc_hd__dfxtp_1
XFILLER_0_21_63 VGND VGND VPWR VPWR sky130_fd_sc_hd__fill_2
X_1853_ clknet_leaf_22_clk _0093_ VGND VGND VPWR VPWR data_reg\[12\]\[1\] sky130_fd_sc_hd__dfxtp_1
XFILLER_0_12_357 VGND VGND VPWR VPWR sky130_fd_sc_hd__fill_1
X_1149_ _0736_ net306 _0822_ VGND VGND VPWR VPWR _0827_ sky130_fd_sc_hd__mux2_1
XFILLER_0_1_51 VGND VGND VPWR VPWR sky130_fd_sc_hd__decap_4
X_1218_ net5 VGND VGND VPWR VPWR _0867_ sky130_fd_sc_hd__buf_2
XFILLER_0_27_3 VPWR VGND VPWR VGND sky130_ef_sc_hd__decap_12
XTAP_TAPCELL_ROW_35_341 VGND VPWR sky130_fd_sc_hd__tapvpwrvgnd_1
XFILLER_0_15_173 VGND VGND VPWR VPWR sky130_fd_sc_hd__fill_1
Xhold97 data_reg\[25\]\[0\] VGND VGND VPWR VPWR net122 sky130_fd_sc_hd__dlygate4sd3_1
Xhold53 data_reg\[7\]\[6\] VGND VGND VPWR VPWR net78 sky130_fd_sc_hd__dlygate4sd3_1
Xhold42 temperature_output\[15\] VGND VGND VPWR VPWR net67 sky130_fd_sc_hd__dlygate4sd3_1
Xhold20 temperature_output\[14\] VGND VGND VPWR VPWR net45 sky130_fd_sc_hd__dlygate4sd3_1
Xhold31 temperature_output\[5\] VGND VGND VPWR VPWR net56 sky130_fd_sc_hd__dlygate4sd3_1
Xhold86 data_reg\[17\]\[6\] VGND VGND VPWR VPWR net111 sky130_fd_sc_hd__dlygate4sd3_1
Xhold64 count\[7\] VGND VGND VPWR VPWR net89 sky130_fd_sc_hd__dlygate4sd3_1
Xhold75 data_reg\[25\]\[6\] VGND VGND VPWR VPWR net100 sky130_fd_sc_hd__dlygate4sd3_1
XTAP_TAPCELL_ROW_58_477 VGND VPWR sky130_fd_sc_hd__tapvpwrvgnd_1
XFILLER_0_53_279 VGND VGND VPWR VPWR sky130_fd_sc_hd__fill_1
XTAP_TAPCELL_ROW_41_377 VGND VPWR sky130_fd_sc_hd__tapvpwrvgnd_1
XFILLER_0_6_29 VPWR VGND VPWR VGND sky130_ef_sc_hd__decap_12
XTAP_TAPCELL_ROW_49_422 VGND VPWR sky130_fd_sc_hd__tapvpwrvgnd_1
X_2052_ clknet_leaf_4_clk _0276_ VGND VGND VPWR VPWR count\[0\] sky130_fd_sc_hd__dfxtp_2
X_1003_ _0744_ VGND VGND VPWR VPWR _0745_ sky130_fd_sc_hd__clkbuf_4
X_1905_ clknet_leaf_13_clk _0145_ VGND VGND VPWR VPWR data_reg\[11\]\[5\] sky130_fd_sc_hd__dfxtp_1
XTAP_TAPCELL_ROW_32_322 VGND VPWR sky130_fd_sc_hd__tapvpwrvgnd_1
XFILLER_0_29_276 VGND VGND VPWR VPWR sky130_fd_sc_hd__decap_4
XFILLER_0_29_254 VGND VGND VPWR VPWR sky130_fd_sc_hd__decap_3
XFILLER_0_29_221 VGND VGND VPWR VPWR sky130_fd_sc_hd__decap_3
XFILLER_0_44_279 VGND VGND VPWR VPWR sky130_fd_sc_hd__fill_2
X_1767_ _0665_ VGND VGND VPWR VPWR _0306_ sky130_fd_sc_hd__clkbuf_1
XFILLER_0_4_321 VPWR VGND VPWR VGND sky130_ef_sc_hd__decap_12
XPHY_EDGE_ROW_6_Right_6 VGND VGND VPWR VPWR sky130_fd_sc_hd__decap_3
X_1698_ data_reg\[0\]\[5\] data_reg\[1\]\[5\] data_reg\[2\]\[5\] data_reg\[3\]\[5\]
+ _0713_ _0516_ VGND VGND VPWR VPWR _0609_ sky130_fd_sc_hd__mux4_1
XFILLER_0_12_187 VGND VGND VPWR VPWR sky130_fd_sc_hd__fill_1
X_1836_ clknet_leaf_21_clk _0076_ VGND VGND VPWR VPWR data_reg\[9\]\[0\] sky130_fd_sc_hd__dfxtp_1
XTAP_TAPCELL_ROW_55_458 VGND VPWR sky130_fd_sc_hd__tapvpwrvgnd_1
XPHY_EDGE_ROW_11_Left_72 VGND VGND VPWR VPWR sky130_fd_sc_hd__decap_3
XFILLER_0_50_205 VGND VGND VPWR VPWR sky130_fd_sc_hd__fill_1
Xoutput21 net21 VGND VGND VPWR VPWR data_out[7] sky130_fd_sc_hd__clkbuf_4
XPHY_EDGE_ROW_59_Right_59 VGND VGND VPWR VPWR sky130_fd_sc_hd__decap_3
XFILLER_0_26_235 VGND VGND VPWR VPWR sky130_fd_sc_hd__fill_1
XFILLER_0_5_118 VPWR VGND VPWR VGND sky130_ef_sc_hd__decap_12
X_1621_ data_reg\[29\]\[2\] _0787_ _0834_ data_reg\[30\]\[2\] _0534_ VGND VGND VPWR
+ VPWR _0535_ sky130_fd_sc_hd__a221o_1
X_1552_ count\[4\] _0470_ count\[5\] VGND VGND VPWR VPWR _0476_ sky130_fd_sc_hd__a21o_1
XFILLER_0_1_357 VGND VGND VPWR VPWR sky130_fd_sc_hd__fill_1
XFILLER_0_1_335 VGND VGND VPWR VPWR sky130_fd_sc_hd__fill_1
X_1483_ _0434_ VGND VGND VPWR VPWR _0253_ sky130_fd_sc_hd__clkbuf_1
XFILLER_0_49_327 VGND VGND VPWR VPWR sky130_fd_sc_hd__decap_8
X_2035_ clknet_leaf_2_clk _0275_ VGND VGND VPWR VPWR data_reg\[7\]\[7\] sky130_fd_sc_hd__dfxtp_1
XTAP_TAPCELL_ROW_60_494 VGND VPWR sky130_fd_sc_hd__tapvpwrvgnd_1
XFILLER_0_17_235 VGND VGND VPWR VPWR sky130_fd_sc_hd__fill_1
X_1819_ clknet_leaf_4_clk _0059_ VGND VGND VPWR VPWR pulse_duration\[3\] sky130_fd_sc_hd__dfxtp_1
XFILLER_0_4_195 VGND VGND VPWR VPWR sky130_fd_sc_hd__fill_1
X_0983_ _0731_ VGND VGND VPWR VPWR _0033_ sky130_fd_sc_hd__clkbuf_1
X_1535_ count\[1\] count\[0\] VGND VGND VPWR VPWR _0463_ sky130_fd_sc_hd__nand2_1
XFILLER_0_14_249 VGND VGND VPWR VPWR sky130_fd_sc_hd__decap_3
X_1604_ net25 _0517_ _0518_ _0708_ VGND VGND VPWR VPWR _0519_ sky130_fd_sc_hd__a22o_1
X_1397_ net4 net126 _0389_ VGND VGND VPWR VPWR _0390_ sky130_fd_sc_hd__mux2_1
XFILLER_0_38_83 VGND VGND VPWR VPWR sky130_fd_sc_hd__fill_1
X_1466_ net216 net109 _0745_ VGND VGND VPWR VPWR _0426_ sky130_fd_sc_hd__mux2_1
XFILLER_0_49_113 VGND VGND VPWR VPWR sky130_fd_sc_hd__fill_1
X_2018_ clknet_leaf_23_clk _0258_ VGND VGND VPWR VPWR data_reg\[3\]\[6\] sky130_fd_sc_hd__dfxtp_1
XFILLER_0_60_322 VGND VGND VPWR VPWR sky130_fd_sc_hd__fill_1
XFILLER_0_13_260 VGND VGND VPWR VPWR sky130_fd_sc_hd__decap_8
Xhold172 data_reg\[21\]\[0\] VGND VGND VPWR VPWR net197 sky130_fd_sc_hd__dlygate4sd3_1
XFILLER_0_13_271 VGND VGND VPWR VPWR sky130_fd_sc_hd__fill_1
Xhold161 data_reg\[8\]\[6\] VGND VGND VPWR VPWR net186 sky130_fd_sc_hd__dlygate4sd3_1
Xhold183 data_reg\[8\]\[7\] VGND VGND VPWR VPWR net208 sky130_fd_sc_hd__dlygate4sd3_1
Xhold150 data_reg\[24\]\[6\] VGND VGND VPWR VPWR net175 sky130_fd_sc_hd__dlygate4sd3_1
Xhold194 data_reg\[22\]\[1\] VGND VGND VPWR VPWR net219 sky130_fd_sc_hd__dlygate4sd3_1
XTAP_TAPCELL_ROW_28_299 VGND VPWR sky130_fd_sc_hd__tapvpwrvgnd_1
XFILLER_0_55_138 VGND VGND VPWR VPWR sky130_fd_sc_hd__fill_1
XFILLER_0_36_341 VGND VGND VPWR VPWR sky130_fd_sc_hd__fill_1
X_1320_ _0875_ net188 _0342_ VGND VGND VPWR VPWR _0348_ sky130_fd_sc_hd__mux2_1
XTAP_TAPCELL_ROW_11_199 VGND VPWR sky130_fd_sc_hd__tapvpwrvgnd_1
X_1251_ _0886_ net221 _0879_ VGND VGND VPWR VPWR _0887_ sky130_fd_sc_hd__mux2_1
X_1182_ _0847_ VGND VGND VPWR VPWR _0116_ sky130_fd_sc_hd__clkbuf_1
XTAP_TAPCELL_ROW_19_244 VGND VPWR sky130_fd_sc_hd__tapvpwrvgnd_1
XFILLER_0_24_85 VGND VGND VPWR VPWR sky130_fd_sc_hd__decap_3
XFILLER_0_54_182 VGND VGND VPWR VPWR sky130_fd_sc_hd__decap_4
XFILLER_0_42_333 VGND VGND VPWR VPWR sky130_fd_sc_hd__fill_1
XFILLER_0_27_330 VGND VGND VPWR VPWR sky130_fd_sc_hd__decap_6
X_0897_ _0675_ VGND VGND VPWR VPWR _0011_ sky130_fd_sc_hd__clkbuf_1
X_0966_ address\[1\] VGND VGND VPWR VPWR _0716_ sky130_fd_sc_hd__buf_4
XPHY_EDGE_ROW_58_Left_119 VGND VGND VPWR VPWR sky130_fd_sc_hd__decap_3
X_1449_ _0417_ VGND VGND VPWR VPWR _0236_ sky130_fd_sc_hd__clkbuf_1
X_1518_ _0453_ VGND VGND VPWR VPWR _0269_ sky130_fd_sc_hd__clkbuf_1
XTAP_TAPCELL_ROW_2_145 VGND VPWR sky130_fd_sc_hd__tapvpwrvgnd_1
XFILLER_0_60_141 VGND VGND VPWR VPWR sky130_fd_sc_hd__decap_4
XTAP_TAPCELL_ROW_16_225 VGND VPWR sky130_fd_sc_hd__tapvpwrvgnd_1
XFILLER_0_43_108 VGND VGND VPWR VPWR sky130_fd_sc_hd__fill_1
XFILLER_0_3_249 VPWR VGND VPWR VGND sky130_ef_sc_hd__decap_12
XFILLER_0_3_205 VPWR VGND VPWR VGND sky130_ef_sc_hd__decap_12
X_1303_ _0875_ net90 _0333_ VGND VGND VPWR VPWR _0339_ sky130_fd_sc_hd__mux2_1
XFILLER_0_10_76 VGND VGND VPWR VPWR sky130_fd_sc_hd__decap_8
X_1096_ _0797_ VGND VGND VPWR VPWR _0080_ sky130_fd_sc_hd__clkbuf_1
XFILLER_0_35_51 VGND VGND VPWR VPWR sky130_fd_sc_hd__decap_4
X_1165_ _0838_ VGND VGND VPWR VPWR _0108_ sky130_fd_sc_hd__clkbuf_1
X_1234_ _0877_ VGND VGND VPWR VPWR _0138_ sky130_fd_sc_hd__clkbuf_1
X_1998_ clknet_leaf_7_clk _0238_ VGND VGND VPWR VPWR data_reg\[30\]\[2\] sky130_fd_sc_hd__dfxtp_1
XFILLER_0_30_336 VGND VGND VPWR VPWR sky130_fd_sc_hd__decap_6
X_0949_ _0702_ VGND VGND VPWR VPWR _0020_ sky130_fd_sc_hd__clkbuf_1
XFILLER_0_27_193 VGND VGND VPWR VPWR sky130_fd_sc_hd__decap_8
XTAP_TAPCELL_ROW_38_361 VGND VPWR sky130_fd_sc_hd__tapvpwrvgnd_1
XTAP_TAPCELL_ROW_13_206 VGND VPWR sky130_fd_sc_hd__tapvpwrvgnd_1
XFILLER_0_56_299 VGND VGND VPWR VPWR sky130_fd_sc_hd__fill_1
XTAP_TAPCELL_ROW_44_397 VGND VPWR sky130_fd_sc_hd__tapvpwrvgnd_1
X_1921_ clknet_leaf_18_clk _0161_ VGND VGND VPWR VPWR data_reg\[21\]\[5\] sky130_fd_sc_hd__dfxtp_1
X_1852_ clknet_leaf_23_clk _0092_ VGND VGND VPWR VPWR data_reg\[12\]\[0\] sky130_fd_sc_hd__dfxtp_1
X_1783_ clknet_leaf_20_clk _0023_ VGND VGND VPWR VPWR data_reg\[1\]\[7\] sky130_fd_sc_hd__dfxtp_1
XFILLER_0_21_86 VGND VGND VPWR VPWR sky130_fd_sc_hd__decap_8
XFILLER_0_24_185 VGND VGND VPWR VPWR sky130_fd_sc_hd__fill_2
X_1079_ _0785_ VGND VGND VPWR VPWR _0075_ sky130_fd_sc_hd__clkbuf_1
XTAP_TAPCELL_ROW_35_342 VGND VPWR sky130_fd_sc_hd__tapvpwrvgnd_1
X_1148_ _0826_ VGND VGND VPWR VPWR _0103_ sky130_fd_sc_hd__clkbuf_1
X_1217_ _0866_ VGND VGND VPWR VPWR _0132_ sky130_fd_sc_hd__clkbuf_1